data/003ieee.txt
 00/00/01                      2220.  0    0 0                                                                                                                                                                                                                                                             
BUS DATA FOLLOWS                    3 ITEMS
   1 bus-1   100   1  1  2 1.    28.342 0.       0.        0.9   2965.91  100.    1.     221977 -22197    0.      0.        0                                                                                                                                                                            
   2 bus-2   100   1  1    0.944 20.123 0.       0.        0.      0.       100.    1.       0.     0.      0.      0.        0                                                                                                                                                                            
   3 bus-3   100   1  1  3 0.9   0.     0.       0.        -1997.998 7.05795 100.    .9 221977 -22197    0.      0.        0                                                                                                                                                                            
-999
BRANCH DATA FOLLOWS                    3 ITEMS
   3    2  1  1      0.        0.93        0.     0    0     0      0    0  0      0      0      0       0      0      0                                                                                                                                                                                   
   3    2  1  1     0.        0.5         0.     0    0     0      0    0  0      0      0      0       0      0      0                                                                                                                                                                                   
   1    2  1  1   2  0.        0.15        0.     0    0     0      0    0  1.     0      0      0       0      0      0                                                                                                                                                                                   
-999
LOSS ZONES FOLLOWS   0 ITEMS
-99
INTERCHANGE DATA FOLLOWS      0 ITEMS
-9
TIE LINES FOLLOWS             0 ITEMS
-999
END OF DATA